./execute.sh: línea 89: ../../../../simplesim-3.0_acx/sim-outorder: No existe el archivo o el directorio
./execute.sh: línea 89: ../../../../simplesim-3.0_acx/sim-outorder: No existe el archivo o el directorio
./execute.sh: línea 89: ../../../../simplesim-3.0_acx/sim-outorder: No existe el archivo o el directorio
./execute.sh: línea 89: ../../../../simplesim-3.0_acx/sim-outorder: No existe el archivo o el directorio
./execute.sh: línea 89: ../../../../simplesim-3.0_acx/sim-outorder: No existe el archivo o el directorio
./execute.sh: línea 89: ../../../../simplesim-3.0_acx/sim-outorder: No existe el archivo o el directorio
./execute.sh: línea 89: ../../../../simplesim-3.0_acx/sim-outorder: No existe el archivo o el directorio
./execute.sh: línea 89: ../../../../simplesim-3.0_acx/sim-outorder: No existe el archivo o el directorio
./execute.sh: línea 89: ../../../../simplesim-3.0_acx/sim-outorder: No existe el archivo o el directorio
./execute.sh: línea 89: ../../../../simplesim-3.0_acx/sim-outorder: No existe el archivo o el directorio
./execute.sh: línea 89: ../../../../simplesim-3.0_acx/sim-outorder: No existe el archivo o el directorio
./execute.sh: línea 89: ../../../../simplesim-3.0_acx/sim-outorder: No existe el archivo o el directorio
./execute.sh: línea 89: ../../../../simplesim-3.0_acx/sim-outorder: No existe el archivo o el directorio
./execute.sh: línea 89: ../../../../simplesim-3.0_acx/sim-outorder: No existe el archivo o el directorio
./execute.sh: línea 89: ../../../../simplesim-3.0_acx/sim-outorder: No existe el archivo o el directorio
./execute.sh: línea 89: ../../../../simplesim-3.0_acx/sim-outorder: No existe el archivo o el directorio
./execute.sh: línea 89: ../../../../simplesim-3.0_acx/sim-outorder: No existe el archivo o el directorio
./execute.sh: línea 89: ../../../../simplesim-3.0_acx/sim-outorder: No existe el archivo o el directorio
./execute.sh: línea 89: ../../../../simplesim-3.0_acx/sim-outorder: No existe el archivo o el directorio
./execute.sh: línea 89: ../../../../simplesim-3.0_acx/sim-outorder: No existe el archivo o el directorio
./execute.sh: línea 89: ../../../../simplesim-3.0_acx/sim-outorder: No existe el archivo o el directorio
./execute.sh: línea 89: ../../../../simplesim-3.0_acx/sim-outorder: No existe el archivo o el directorio
./execute.sh: línea 89: ../../../../simplesim-3.0_acx/sim-outorder: No existe el archivo o el directorio
./execute.sh: línea 89: ../../../../simplesim-3.0_acx/sim-outorder: No existe el archivo o el directorio
./execute.sh: línea 89: ../../../../simplesim-3.0_acx/sim-outorder: No existe el archivo o el directorio
./execute.sh: línea 89: ../../../../simplesim-3.0_acx/sim-outorder: No existe el archivo o el directorio
./execute.sh: línea 89: ../../../../simplesim-3.0_acx/sim-outorder: No existe el archivo o el directorio
./execute.sh: línea 89: ../../../../simplesim-3.0_acx/sim-outorder: No existe el archivo o el directorio
./execute.sh: línea 89: ../../../../simplesim-3.0_acx/sim-outorder: No existe el archivo o el directorio
./execute.sh: línea 89: ../../../../simplesim-3.0_acx/sim-outorder: No existe el archivo o el directorio
./execute.sh: línea 89: ../../../../simplesim-3.0_acx/sim-outorder: No existe el archivo o el directorio
./execute.sh: línea 89: ../../../../simplesim-3.0_acx/sim-outorder: No existe el archivo o el directorio
./execute.sh: línea 89: ../../../../simplesim-3.0_acx/sim-outorder: No existe el archivo o el directorio
./execute.sh: línea 89: ../../../../simplesim-3.0_acx/sim-outorder: No existe el archivo o el directorio
./execute.sh: línea 89: ../../../../simplesim-3.0_acx/sim-outorder: No existe el archivo o el directorio
./execute.sh: línea 89: ../../../../simplesim-3.0_acx/sim-outorder: No existe el archivo o el directorio
./execute.sh: línea 89: ../../../../simplesim-3.0_acx/sim-outorder: No existe el archivo o el directorio
./execute.sh: línea 89: ../../../../simplesim-3.0_acx/sim-outorder: No existe el archivo o el directorio
./execute.sh: línea 89: ../../../../simplesim-3.0_acx/sim-outorder: No existe el archivo o el directorio
./execute.sh: línea 89: ../../../../simplesim-3.0_acx/sim-outorder: No existe el archivo o el directorio
./execute.sh: línea 89: ../../../../simplesim-3.0_acx/sim-outorder: No existe el archivo o el directorio
./execute.sh: línea 89: ../../../../simplesim-3.0_acx/sim-outorder: No existe el archivo o el directorio
./execute.sh: línea 89: ../../../../simplesim-3.0_acx/sim-outorder: No existe el archivo o el directorio
./execute.sh: línea 89: ../../../../simplesim-3.0_acx/sim-outorder: No existe el archivo o el directorio
./execute.sh: línea 89: ../../../../simplesim-3.0_acx/sim-outorder: No existe el archivo o el directorio
./execute.sh: línea 89: ../../../../simplesim-3.0_acx/sim-outorder: No existe el archivo o el directorio
./execute.sh: línea 89: ../../../../simplesim-3.0_acx/sim-outorder: No existe el archivo o el directorio
./execute.sh: línea 89: ../../../../simplesim-3.0_acx/sim-outorder: No existe el archivo o el directorio
./execute.sh: línea 89: ../../../../simplesim-3.0_acx/sim-outorder: No existe el archivo o el directorio
./execute.sh: línea 89: ../../../../simplesim-3.0_acx/sim-outorder: No existe el archivo o el directorio
./execute.sh: línea 89: ../../../../simplesim-3.0_acx/sim-outorder: No existe el archivo o el directorio
./execute.sh: línea 89: ../../../../simplesim-3.0_acx/sim-outorder: No existe el archivo o el directorio
./execute.sh: línea 89: ../../../../simplesim-3.0_acx/sim-outorder: No existe el archivo o el directorio
./execute.sh: línea 89: ../../../../simplesim-3.0_acx/sim-outorder: No existe el archivo o el directorio
./execute.sh: línea 89: ../../../../simplesim-3.0_acx/sim-outorder: No existe el archivo o el directorio
./execute.sh: línea 89: ../../../../simplesim-3.0_acx/sim-outorder: No existe el archivo o el directorio
./execute.sh: línea 89: ../../../../simplesim-3.0_acx/sim-outorder: No existe el archivo o el directorio
./execute.sh: línea 89: ../../../../simplesim-3.0_acx/sim-outorder: No existe el archivo o el directorio
./execute.sh: línea 89: ../../../../simplesim-3.0_acx/sim-outorder: No existe el archivo o el directorio
./execute.sh: línea 89: ../../../../simplesim-3.0_acx/sim-outorder: No existe el archivo o el directorio
./execute.sh: línea 89: ../../../../simplesim-3.0_acx/sim-outorder: No existe el archivo o el directorio
./execute.sh: línea 89: ../../../../simplesim-3.0_acx/sim-outorder: No existe el archivo o el directorio
./execute.sh: línea 89: ../../../../simplesim-3.0_acx/sim-outorder: No existe el archivo o el directorio
./execute.sh: línea 89: ../../../../simplesim-3.0_acx/sim-outorder: No existe el archivo o el directorio
./execute.sh: línea 89: ../../../../simplesim-3.0_acx/sim-outorder: No existe el archivo o el directorio
./execute.sh: línea 89: ../../../../simplesim-3.0_acx/sim-outorder: No existe el archivo o el directorio
./execute.sh: línea 89: ../../../../simplesim-3.0_acx/sim-outorder: No existe el archivo o el directorio
./execute.sh: línea 89: ../../../../simplesim-3.0_acx/sim-outorder: No existe el archivo o el directorio
./execute.sh: línea 89: ../../../../simplesim-3.0_acx/sim-outorder: No existe el archivo o el directorio
./execute.sh: línea 89: ../../../../simplesim-3.0_acx/sim-outorder: No existe el archivo o el directorio
./execute.sh: línea 89: ../../../../simplesim-3.0_acx/sim-outorder: No existe el archivo o el directorio
./execute.sh: línea 89: ../../../../simplesim-3.0_acx/sim-outorder: No existe el archivo o el directorio
./execute.sh: línea 89: ../../../../simplesim-3.0_acx/sim-outorder: No existe el archivo o el directorio
./execute.sh: línea 89: ../../../../simplesim-3.0_acx/sim-outorder: No existe el archivo o el directorio
./execute.sh: línea 89: ../../../../simplesim-3.0_acx/sim-outorder: No existe el archivo o el directorio
./execute.sh: línea 89: ../../../../simplesim-3.0_acx/sim-outorder: No existe el archivo o el directorio
./execute.sh: línea 89: ../../../../simplesim-3.0_acx/sim-outorder: No existe el archivo o el directorio
./execute.sh: línea 89: ../../../../simplesim-3.0_acx/sim-outorder: No existe el archivo o el directorio
./execute.sh: línea 89: ../../../../simplesim-3.0_acx/sim-outorder: No existe el archivo o el directorio
./execute.sh: línea 89: ../../../../simplesim-3.0_acx/sim-outorder: No existe el archivo o el directorio
./execute.sh: línea 89: ../../../../simplesim-3.0_acx/sim-outorder: No existe el archivo o el directorio
./execute.sh: línea 89: ../../../../simplesim-3.0_acx/sim-outorder: No existe el archivo o el directorio
./execute.sh: línea 89: ../../../../simplesim-3.0_acx/sim-outorder: No existe el archivo o el directorio
./execute.sh: línea 89: ../../../../simplesim-3.0_acx/sim-outorder: No existe el archivo o el directorio
./execute.sh: línea 89: ../../../../simplesim-3.0_acx/sim-outorder: No existe el archivo o el directorio
./execute.sh: línea 89: ../../../../simplesim-3.0_acx/sim-outorder: No existe el archivo o el directorio
./execute.sh: línea 89: ../../../../simplesim-3.0_acx/sim-outorder: No existe el archivo o el directorio
./execute.sh: línea 89: ../../../../simplesim-3.0_acx/sim-outorder: No existe el archivo o el directorio
./execute.sh: línea 89: ../../../../simplesim-3.0_acx/sim-outorder: No existe el archivo o el directorio
./execute.sh: línea 89: ../../../../simplesim-3.0_acx/sim-outorder: No existe el archivo o el directorio
./execute.sh: línea 89: ../../../../simplesim-3.0_acx/sim-outorder: No existe el archivo o el directorio
./execute.sh: línea 89: ../../../../simplesim-3.0_acx/sim-outorder: No existe el archivo o el directorio
./execute.sh: línea 89: ../../../../simplesim-3.0_acx/sim-outorder: No existe el archivo o el directorio
./execute.sh: línea 89: ../../../../simplesim-3.0_acx/sim-outorder: No existe el archivo o el directorio
./execute.sh: línea 89: ../../../../simplesim-3.0_acx/sim-outorder: No existe el archivo o el directorio
./execute.sh: línea 89: ../../../../simplesim-3.0_acx/sim-outorder: No existe el archivo o el directorio
./execute.sh: línea 89: ../../../../simplesim-3.0_acx/sim-outorder: No existe el archivo o el directorio
./execute.sh: línea 89: ../../../../simplesim-3.0_acx/sim-outorder: No existe el archivo o el directorio
./execute.sh: línea 89: ../../../../simplesim-3.0_acx/sim-outorder: No existe el archivo o el directorio
./execute.sh: línea 89: ../../../../simplesim-3.0_acx/sim-outorder: No existe el archivo o el directorio
./execute.sh: línea 89: ../../../../simplesim-3.0_acx/sim-outorder: No existe el archivo o el directorio
./execute.sh: línea 89: ../../../../simplesim-3.0_acx/sim-outorder: No existe el archivo o el directorio
./execute.sh: línea 89: ../../../../simplesim-3.0_acx/sim-outorder: No existe el archivo o el directorio
./execute.sh: línea 89: ../../../../simplesim-3.0_acx/sim-outorder: No existe el archivo o el directorio
./execute.sh: línea 89: ../../../../simplesim-3.0_acx/sim-outorder: No existe el archivo o el directorio
./execute.sh: línea 89: ../../../../simplesim-3.0_acx/sim-outorder: No existe el archivo o el directorio
./execute.sh: línea 89: ../../../../simplesim-3.0_acx/sim-outorder: No existe el archivo o el directorio
./execute.sh: línea 89: ../../../../simplesim-3.0_acx/sim-outorder: No existe el archivo o el directorio
./execute.sh: línea 89: ../../../../simplesim-3.0_acx/sim-outorder: No existe el archivo o el directorio
./execute.sh: línea 89: ../../../../simplesim-3.0_acx/sim-outorder: No existe el archivo o el directorio
./execute.sh: línea 89: ../../../../simplesim-3.0_acx/sim-outorder: No existe el archivo o el directorio
./execute.sh: línea 89: ../../../../simplesim-3.0_acx/sim-outorder: No existe el archivo o el directorio
./execute.sh: línea 89: ../../../../simplesim-3.0_acx/sim-outorder: No existe el archivo o el directorio
./execute.sh: línea 89: ../../../../simplesim-3.0_acx/sim-outorder: No existe el archivo o el directorio
./execute.sh: línea 89: ../../../../simplesim-3.0_acx/sim-outorder: No existe el archivo o el directorio
./execute.sh: línea 89: ../../../../simplesim-3.0_acx/sim-outorder: No existe el archivo o el directorio
./execute.sh: línea 89: ../../../../simplesim-3.0_acx/sim-outorder: No existe el archivo o el directorio
./execute.sh: línea 89: ../../../../simplesim-3.0_acx/sim-outorder: No existe el archivo o el directorio
./execute.sh: línea 89: ../../../../simplesim-3.0_acx/sim-outorder: No existe el archivo o el directorio
./execute.sh: línea 89: ../../../../simplesim-3.0_acx/sim-outorder: No existe el archivo o el directorio
./execute.sh: línea 89: ../../../../simplesim-3.0_acx/sim-outorder: No existe el archivo o el directorio
./execute.sh: línea 89: ../../../../simplesim-3.0_acx/sim-outorder: No existe el archivo o el directorio
./execute.sh: línea 89: ../../../../simplesim-3.0_acx/sim-outorder: No existe el archivo o el directorio
